1
9
.tran 100m 5 0
2
1
Net-(CP1-Pad2)
V
1
Net-(CP1-Pad6)
V
