version 2
1
9
.tran 10m 100{return}.kicad adjustpaths{return}.save all{return}.probe alli
4
1
V(BSPD_out)
 
1
V(Net-_CP1-IN+_)
 
1
V(Net-_CP2-IN+_)
 
1
V(Net-_G1-Pad4_)
 
