1
9
.tran 100m 10 0
2
2
R?
I
1
DC-Link In
V
