* DRFN1VWM2STF D model
* Model Generated by ROHM
* All Rights Reserved
* Commercial Use or 
* Resale Restricted
* Date: 2021/12/20
.MODEL DRFN1VWM2STF D
+ IS=308.39E-12
+ N=1.2975
+ RS=20.975E-3
+ IKF=88.635E-3
+ EG=0.92
+ CJO=38.623E-12
+ M=0.3905
+ VJ=0.5006
+ ISR=28.491E-12
+ NR=3
+ BV=200
+ TT=32.728E-9
+ TRS1=-0.002
+ TIKF=0.014