Version 4
SHEET 1 880 680
WIRE -368 32 -368 0
WIRE -16 48 -64 48
WIRE -16 144 -16 48
WIRE 64 144 -16 144
WIRE 176 160 160 160
WIRE 288 160 256 160
WIRE 416 160 288 160
WIRE 64 176 -16 176
WIRE 288 192 288 160
WIRE -16 272 -16 176
WIRE -16 272 -64 272
FLAG -144 48 0
FLAG -144 272 0
FLAG -368 112 0
FLAG 288 256 0
SYMBOL eea_symb\\and2 160 144 R0
SYMATTR InstName U3
SYMBOL res 272 144 R90
WINDOW 0 0 56 VBottom 2
WINDOW 3 32 56 VTop 2
SYMATTR InstName R1
SYMATTR Value 200k
SYMBOL voltage -48 48 R90
WINDOW 0 -32 56 VBottom 2
WINDOW 3 32 56 VTop 2
SYMATTR InstName V1
SYMATTR Value 5V
SYMBOL voltage -48 272 R90
WINDOW 0 -32 56 VBottom 2
WINDOW 3 32 56 VTop 2
WINDOW 123 0 0 Left 0
WINDOW 39 0 0 Left 0
SYMATTR InstName V2
SYMATTR Value PULSE(0 5 2 0.01n 0.01n 5 10 1)
SYMBOL voltage -368 16 R0
WINDOW 123 0 0 Left 0
WINDOW 39 0 0 Left 0
SYMATTR InstName V3
SYMATTR Value 2.49
SYMBOL cap 272 192 R0
SYMATTR InstName C1
SYMATTR Value 400n
TEXT -294 338 Left 2 !.tran 10
