1
9
.tran 500m 32 0
3
1
Net-(G3-Pad4)
V
1
unconnected-(G5-Pad4)
V
1
unconnected-(G6-Pad4)
V
