1
9
.tran 10m 30
4
1
Net-(C1-Pad1)
V
1
Net-(CP1-Pad1)
V
1
Net-(D1-Pad2)
V
1
unconnected-(TI1-Pad3)
V
