1
9
.tran 100m 20 0
4
1
Logic out
V
1
SC
V
1
StayAlive
V
1
Trigg Signal
V
