version 2
1
9
.tran 100u 20m 0{return}.kicad adjustpaths{return}.save all{return}.probe alli
1
1
V(Sortie)
 
