1
9
.tran 100m 10 0
2
1
Net-(DL1-Pad3)
V
1
Net-(R3-Pad2)
V
