1
9
.tran 100m 5
4
2
R3
I
2
R4
I
1
/Output
V
1
/clign
V
