version 2
1
9
.tran 100m 2 0{return}.kicad adjustpaths{return}.save all{return}.probe alli
2
1
V(/Input)
 
1
V(/Output)
 
