1
9
.tran 100m 10 0
6
1
AIR 1
V
1
Int AIR 1
V
1
Net-(J3-Pad1)
V
1
SCS del
V
1
SCS log
V
1
SCS
V
