1
9
.tran 100m 20 0
4
2
R8
I
1
Net-(DL1-Pad3)
V
1
Net-(R3-Pad2)
V
1
unconnected-(DL1-Pad5)
V
