version 2
1
9
.tran 10m 10{return}.kicad adjustpaths{return}.save all{return}.probe alli
3
1
V(Comp)
 
1
V(Net-_CP1-IN+_)
 
1
V(Net-_CP1-IN-_)
 
