version 2
1
9
.tran 100m 121 0{return}.kicad adjustpaths{return}.save all{return}.probe alli
0
